version 2
run Test403-0-20110218-11:50:47-482
attr configname Test403
attr datetime 20110218-11:50:47
attr experiment Test403
attr inifile omnetpp.ini
attr iterationvars ""
attr iterationvars2 $repetition=0
attr measurement ""
attr network Bridge1QTester4
attr processid 482
attr repetition 0
attr replication #0
attr resultdir results
attr runnumber 0
attr seedset 0

