version 2
run Test152-0-20110218-11:50:40-32715
attr configname Test152
attr datetime 20110218-11:50:40
attr experiment Test152
attr inifile omnetpp.ini
attr iterationvars ""
attr iterationvars2 $repetition=0
attr measurement ""
attr network CompleteNetwork
attr processid 32715
attr repetition 0
attr replication #0
attr resultdir results
attr runnumber 0
attr seedset 0

