version 2
run Test108-0-20110218-11:50:35-32577
attr configname Test108
attr datetime 20110218-11:50:35
attr experiment Test108
attr inifile omnetpp.ini
attr iterationvars ""
attr iterationvars2 $repetition=0
attr measurement ""
attr network BEB1Tester4
attr processid 32577
attr repetition 0
attr replication #0
attr resultdir results
attr runnumber 0
attr seedset 0

