version 2
run Test008-0-20110218-11:50:34-32525
attr configname Test008
attr datetime 20110218-11:50:34
attr experiment Test008
attr inifile omnetpp.ini
attr iterationvars ""
attr iterationvars2 $repetition=0
attr measurement ""
attr network Tester2
attr processid 32525
attr repetition 0
attr replication #0
attr resultdir results
attr runnumber 0
attr seedset 0

