version 2
run Test351-0-20110218-11:50:46-443
attr configname Test351
attr datetime 20110218-11:50:46
attr experiment Test351
attr inifile omnetpp.ini
attr iterationvars ""
attr iterationvars2 $repetition=0
attr measurement ""
attr network EthernetHostNetwork
attr processid 443
attr repetition 0
attr replication #0
attr resultdir results
attr runnumber 0
attr seedset 0

