version 2
run Test252-0-20110218-11:50:44-381
attr configname Test252
attr datetime 20110218-11:50:44
attr experiment Test252
attr inifile omnetpp.ini
attr iterationvars ""
attr iterationvars2 $repetition=0
attr measurement ""
attr network DiffusionTreeTest
attr processid 381
attr repetition 0
attr replication #0
attr resultdir results
attr runnumber 0
attr seedset 0

