version 2
run Test118-0-20110218-11:50:38-32642
attr configname Test118
attr datetime 20110218-11:50:38
attr experiment Test118
attr inifile omnetpp.ini
attr iterationvars ""
attr iterationvars2 $repetition=0
attr measurement ""
attr network BEB1Tester4
attr processid 32642
attr repetition 0
attr replication #0
attr resultdir results
attr runnumber 0
attr seedset 0

