version 2
run Test509-0-20110218-11:50:52-650
attr configname Test509
attr datetime 20110218-11:50:52
attr experiment Test509
attr inifile omnetpp.ini
attr iterationvars ""
attr iterationvars2 $repetition=0
attr measurement ""
attr network Bridge1ADTester4
attr processid 650
attr repetition 0
attr replication #0
attr resultdir results
attr runnumber 0
attr seedset 0

