version 2
run Test503-0-20110218-11:50:50-600
attr configname Test503
attr datetime 20110218-11:50:50
attr experiment Test503
attr inifile omnetpp.ini
attr iterationvars ""
attr iterationvars2 $repetition=0
attr measurement ""
attr network Bridge1ADTester4
attr processid 600
attr repetition 0
attr replication #0
attr resultdir results
attr runnumber 0
attr seedset 0

