version 2
run Test109-0-20110218-11:50:36-32583
attr configname Test109
attr datetime 20110218-11:50:36
attr experiment Test109
attr inifile omnetpp.ini
attr iterationvars ""
attr iterationvars2 $repetition=0
attr measurement ""
attr network BEB1Tester4
attr processid 32583
attr repetition 0
attr replication #0
attr resultdir results
attr runnumber 0
attr seedset 0

