version 2
run Test114-0-20110218-11:50:37-32614
attr configname Test114
attr datetime 20110218-11:50:37
attr experiment Test114
attr inifile omnetpp.ini
attr iterationvars ""
attr iterationvars2 $repetition=0
attr measurement ""
attr network BEB1Tester4
attr processid 32614
attr repetition 0
attr replication #0
attr resultdir results
attr runnumber 0
attr seedset 0

