version 2
run Test002-0-20110218-11:50:32-32489
attr configname Test002
attr datetime 20110218-11:50:32
attr experiment Test002
attr inifile omnetpp.ini
attr iterationvars ""
attr iterationvars2 $repetition=0
attr measurement ""
attr network Tester2
attr processid 32489
attr repetition 0
attr replication #0
attr resultdir results
attr runnumber 0
attr seedset 0

