version 2
run Test506-0-20110218-11:50:51-630
attr configname Test506
attr datetime 20110218-11:50:51
attr experiment Test506
attr inifile omnetpp.ini
attr iterationvars ""
attr iterationvars2 $repetition=0
attr measurement ""
attr network Bridge1ADTester4
attr processid 630
attr repetition 0
attr replication #0
attr resultdir results
attr runnumber 0
attr seedset 0

