version 2
run Test113-0-20110218-11:50:37-32608
attr configname Test113
attr datetime 20110218-11:50:37
attr experiment Test113
attr inifile omnetpp.ini
attr iterationvars ""
attr iterationvars2 $repetition=0
attr measurement ""
attr network BEB1Tester4
attr processid 32608
attr repetition 0
attr replication #0
attr resultdir results
attr runnumber 0
attr seedset 0

