version 2
run Test607-0-20110218-11:50:54-794
attr configname Test607
attr datetime 20110218-11:50:54
attr experiment Test607
attr inifile omnetpp.ini
attr iterationvars ""
attr iterationvars2 $repetition=0
attr measurement ""
attr network BEBTester4
attr processid 794
attr repetition 0
attr replication #0
attr resultdir results
attr runnumber 0
attr seedset 0

