version 2
run Test618-0-20110218-11:50:57-947
attr configname Test618
attr datetime 20110218-11:50:57
attr experiment Test618
attr inifile omnetpp.ini
attr iterationvars ""
attr iterationvars2 $repetition=0
attr measurement ""
attr network BEBTester4
attr processid 947
attr repetition 0
attr replication #0
attr resultdir results
attr runnumber 0
attr seedset 0

