version 2
run Test005-0-20110218-11:50:33-32507
attr configname Test005
attr datetime 20110218-11:50:33
attr experiment Test005
attr inifile omnetpp.ini
attr iterationvars ""
attr iterationvars2 $repetition=0
attr measurement ""
attr network Tester2
attr processid 32507
attr repetition 0
attr replication #0
attr resultdir results
attr runnumber 0
attr seedset 0

