version 2
run Test504-0-20110218-11:50:50-610
attr configname Test504
attr datetime 20110218-11:50:50
attr experiment Test504
attr inifile omnetpp.ini
attr iterationvars ""
attr iterationvars2 $repetition=0
attr measurement ""
attr network Bridge1ADTester4
attr processid 610
attr repetition 0
attr replication #0
attr resultdir results
attr runnumber 0
attr seedset 0

