version 2
run Test501-0-20110218-11:50:50-580
attr configname Test501
attr datetime 20110218-11:50:50
attr experiment Test501
attr inifile omnetpp.ini
attr iterationvars ""
attr iterationvars2 $repetition=0
attr measurement ""
attr network Bridge1ADTester4
attr processid 580
attr repetition 0
attr replication #0
attr resultdir results
attr runnumber 0
attr seedset 0

