version 2
run Test201-0-20110218-11:50:43-336
attr configname Test201
attr datetime 20110218-11:50:43
attr experiment Test201
attr inifile omnetpp.ini
attr iterationvars ""
attr iterationvars2 $repetition=0
attr measurement ""
attr network BEB1Tester4
attr processid 336
attr repetition 0
attr replication #0
attr resultdir results
attr runnumber 0
attr seedset 0

