version 2
run Test614-0-20110218-11:50:56-910
attr configname Test614
attr datetime 20110218-11:50:56
attr experiment Test614
attr inifile omnetpp.ini
attr iterationvars ""
attr iterationvars2 $repetition=0
attr measurement ""
attr network BEBTester4
attr processid 910
attr repetition 0
attr replication #0
attr resultdir results
attr runnumber 0
attr seedset 0

