version 2
run Test126-0-20110218-11:50:39-32698
attr configname Test126
attr datetime 20110218-11:50:39
attr experiment Test126
attr inifile omnetpp.ini
attr iterationvars ""
attr iterationvars2 $repetition=0
attr measurement ""
attr network BEB1Tester4
attr processid 32698
attr repetition 0
attr replication #0
attr resultdir results
attr runnumber 0
attr seedset 0

