version 2
run Test507-0-20110218-11:50:51-635
attr configname Test507
attr datetime 20110218-11:50:51
attr experiment Test507
attr inifile omnetpp.ini
attr iterationvars ""
attr iterationvars2 $repetition=0
attr measurement ""
attr network Bridge1ADTester4
attr processid 635
attr repetition 0
attr replication #0
attr resultdir results
attr runnumber 0
attr seedset 0

