version 2
run Test202-0-20110218-11:50:43-342
attr configname Test202
attr datetime 20110218-11:50:43
attr experiment Test202
attr inifile omnetpp.ini
attr iterationvars ""
attr iterationvars2 $repetition=0
attr measurement ""
attr network BEB1Tester4
attr processid 342
attr repetition 0
attr replication #0
attr resultdir results
attr runnumber 0
attr seedset 0

