version 2
run Test155-0-20110218-11:50:41-32748
attr configname Test155
attr datetime 20110218-11:50:41
attr experiment Test155
attr inifile omnetpp.ini
attr iterationvars ""
attr iterationvars2 $repetition=0
attr measurement ""
attr network CompleteNetwork
attr processid 32748
attr repetition 0
attr replication #0
attr resultdir results
attr runnumber 0
attr seedset 0

