version 2
run Test205-0-20110218-11:50:44-365
attr configname Test205
attr datetime 20110218-11:50:44
attr experiment Test205
attr inifile omnetpp.ini
attr iterationvars ""
attr iterationvars2 $repetition=0
attr measurement ""
attr network BEB1Tester4
attr processid 365
attr repetition 0
attr replication #0
attr resultdir results
attr runnumber 0
attr seedset 0

