version 2
run Test616-0-20110218-11:50:57-927
attr configname Test616
attr datetime 20110218-11:50:57
attr experiment Test616
attr inifile omnetpp.ini
attr iterationvars ""
attr iterationvars2 $repetition=0
attr measurement ""
attr network BEBTester4
attr processid 927
attr repetition 0
attr replication #0
attr resultdir results
attr runnumber 0
attr seedset 0

