version 2
run Test303-0-20110218-11:50:45-423
attr configname Test303
attr datetime 20110218-11:50:45
attr experiment Test303
attr inifile omnetpp.ini
attr iterationvars ""
attr iterationvars2 $repetition=0
attr measurement ""
attr network EthernetHostTester
attr processid 423
attr repetition 0
attr replication #0
attr resultdir results
attr runnumber 0
attr seedset 0

