version 2
run Test102-0-20110218-11:50:34-32541
attr configname Test102
attr datetime 20110218-11:50:34
attr experiment Test102
attr inifile omnetpp.ini
attr iterationvars ""
attr iterationvars2 $repetition=0
attr measurement ""
attr network BEB1Tester4
attr processid 32541
attr repetition 0
attr replication #0
attr resultdir results
attr runnumber 0
attr seedset 0

