version 2
run Test120-0-20110218-11:50:38-32662
attr configname Test120
attr datetime 20110218-11:50:38
attr experiment Test120
attr inifile omnetpp.ini
attr iterationvars ""
attr iterationvars2 $repetition=0
attr measurement ""
attr network BEB1Tester4
attr processid 32662
attr repetition 0
attr replication #0
attr resultdir results
attr runnumber 0
attr seedset 0

