version 2
run Test107-0-20110218-11:50:35-32571
attr configname Test107
attr datetime 20110218-11:50:35
attr experiment Test107
attr inifile omnetpp.ini
attr iterationvars ""
attr iterationvars2 $repetition=0
attr measurement ""
attr network BEB1Tester4
attr processid 32571
attr repetition 0
attr replication #0
attr resultdir results
attr runnumber 0
attr seedset 0

