version 2
run Test119-0-20110218-11:50:38-32652
attr configname Test119
attr datetime 20110218-11:50:38
attr experiment Test119
attr inifile omnetpp.ini
attr iterationvars ""
attr iterationvars2 $repetition=0
attr measurement ""
attr network BEB1Tester4
attr processid 32652
attr repetition 0
attr replication #0
attr resultdir results
attr runnumber 0
attr seedset 0

