version 2
run Test204-0-20110218-11:50:44-358
attr configname Test204
attr datetime 20110218-11:50:44
attr experiment Test204
attr inifile omnetpp.ini
attr iterationvars ""
attr iterationvars2 $repetition=0
attr measurement ""
attr network BEB1Tester4
attr processid 358
attr repetition 0
attr replication #0
attr resultdir results
attr runnumber 0
attr seedset 0

