version 2
run Test301-0-20110218-11:50:45-412
attr configname Test301
attr datetime 20110218-11:50:45
attr experiment Test301
attr inifile omnetpp.ini
attr iterationvars ""
attr iterationvars2 $repetition=0
attr measurement ""
attr network EthernetHostTester
attr processid 412
attr repetition 0
attr replication #0
attr resultdir results
attr runnumber 0
attr seedset 0

