version 2
run Test006-0-20110218-11:50:33-32513
attr configname Test006
attr datetime 20110218-11:50:33
attr experiment Test006
attr inifile omnetpp.ini
attr iterationvars ""
attr iterationvars2 $repetition=0
attr measurement ""
attr network Tester2
attr processid 32513
attr repetition 0
attr replication #0
attr resultdir results
attr runnumber 0
attr seedset 0

