version 2
run Test103-0-20110218-11:50:34-32547
attr configname Test103
attr datetime 20110218-11:50:34
attr experiment Test103
attr inifile omnetpp.ini
attr iterationvars ""
attr iterationvars2 $repetition=0
attr measurement ""
attr network BEB1Tester4
attr processid 32547
attr repetition 0
attr replication #0
attr resultdir results
attr runnumber 0
attr seedset 0

