version 2
run Test551-0-20110218-11:50:52-677
attr configname Test551
attr datetime 20110218-11:50:52
attr experiment Test551
attr inifile omnetpp.ini
attr iterationvars ""
attr iterationvars2 $repetition=0
attr measurement ""
attr network Bridge1ADNetwork
attr processid 677
attr repetition 0
attr replication #0
attr resultdir results
attr runnumber 0
attr seedset 0

