version 2
run Test511-0-20110218-11:50:52-672
attr configname Test511
attr datetime 20110218-11:50:52
attr experiment Test511
attr inifile omnetpp.ini
attr iterationvars ""
attr iterationvars2 $repetition=0
attr measurement ""
attr network Bridge1ADTester4
attr processid 672
attr repetition 0
attr replication #0
attr resultdir results
attr runnumber 0
attr seedset 0

