version 2
run Test552-0-20110218-11:50:53-697
attr configname Test552
attr datetime 20110218-11:50:53
attr experiment Test552
attr inifile omnetpp.ini
attr iterationvars ""
attr iterationvars2 $repetition=0
attr measurement ""
attr network Bridge1ADNetwork2
attr processid 697
attr repetition 0
attr replication #0
attr resultdir results
attr runnumber 0
attr seedset 0

