version 2
run Test352-0-20110218-11:50:46-449
attr configname Test352
attr datetime 20110218-11:50:46
attr experiment Test352
attr inifile omnetpp.ini
attr iterationvars ""
attr iterationvars2 $repetition=0
attr measurement ""
attr network EthernetHostNetwork
attr processid 449
attr repetition 0
attr replication #0
attr resultdir results
attr runnumber 0
attr seedset 0

