version 2
run Test510-0-20110218-11:50:52-662
attr configname Test510
attr datetime 20110218-11:50:52
attr experiment Test510
attr inifile omnetpp.ini
attr iterationvars ""
attr iterationvars2 $repetition=0
attr measurement ""
attr network Bridge1ADTester4
attr processid 662
attr repetition 0
attr replication #0
attr resultdir results
attr runnumber 0
attr seedset 0

