version 2
run Test156-0-20110218-11:50:41-32759
attr configname Test156
attr datetime 20110218-11:50:41
attr experiment Test156
attr inifile omnetpp.ini
attr iterationvars ""
attr iterationvars2 $repetition=0
attr measurement ""
attr network CompleteNetwork
attr processid 32759
attr repetition 0
attr replication #0
attr resultdir results
attr runnumber 0
attr seedset 0

