version 2
run Test402-0-20110218-11:50:47-472
attr configname Test402
attr datetime 20110218-11:50:47
attr experiment Test402
attr inifile omnetpp.ini
attr iterationvars ""
attr iterationvars2 $repetition=0
attr measurement ""
attr network Bridge1QTester4
attr processid 472
attr repetition 0
attr replication #0
attr resultdir results
attr runnumber 0
attr seedset 0

