version 2
run Test306-0-20110218-11:50:46-438
attr configname Test306
attr datetime 20110218-11:50:46
attr experiment Test306
attr inifile omnetpp.ini
attr iterationvars ""
attr iterationvars2 $repetition=0
attr measurement ""
attr network EthernetHostTester
attr processid 438
attr repetition 0
attr replication #0
attr resultdir results
attr runnumber 0
attr seedset 0

