version 2
run Test451-0-20110218-11:50:49-546
attr configname Test451
attr datetime 20110218-11:50:49
attr experiment Test451
attr inifile omnetpp.ini
attr iterationvars ""
attr iterationvars2 $repetition=0
attr measurement ""
attr network Bridge1QNetwork
attr processid 546
attr repetition 0
attr replication #0
attr resultdir results
attr runnumber 0
attr seedset 0

