version 2
run Test157-0-20110218-11:50:42-302
attr configname Test157
attr datetime 20110218-11:50:42
attr experiment Test157
attr inifile omnetpp.ini
attr iterationvars ""
attr iterationvars2 $repetition=0
attr measurement ""
attr network CompleteNetwork
attr processid 302
attr repetition 0
attr replication #0
attr resultdir results
attr runnumber 0
attr seedset 0

