version 2
run Test508-0-20110218-11:50:51-640
attr configname Test508
attr datetime 20110218-11:50:51
attr experiment Test508
attr inifile omnetpp.ini
attr iterationvars ""
attr iterationvars2 $repetition=0
attr measurement ""
attr network Bridge1ADTester4
attr processid 640
attr repetition 0
attr replication #0
attr resultdir results
attr runnumber 0
attr seedset 0

