version 2
run Test452-0-20110218-11:50:49-560
attr configname Test452
attr datetime 20110218-11:50:49
attr experiment Test452
attr inifile omnetpp.ini
attr iterationvars ""
attr iterationvars2 $repetition=0
attr measurement ""
attr network Bridge1QNetwork2
attr processid 560
attr repetition 0
attr replication #0
attr resultdir results
attr runnumber 0
attr seedset 0

