version 2
run Test408-0-20110218-11:50:49-532
attr configname Test408
attr datetime 20110218-11:50:49
attr experiment Test408
attr inifile omnetpp.ini
attr iterationvars ""
attr iterationvars2 $repetition=0
attr measurement ""
attr network Bridge1QTester4
attr processid 532
attr repetition 0
attr replication #0
attr resultdir results
attr runnumber 0
attr seedset 0

