version 2
run Test405-0-20110218-11:50:48-492
attr configname Test405
attr datetime 20110218-11:50:48
attr experiment Test405
attr inifile omnetpp.ini
attr iterationvars ""
attr iterationvars2 $repetition=0
attr measurement ""
attr network Bridge1QTester4
attr processid 492
attr repetition 0
attr replication #0
attr resultdir results
attr runnumber 0
attr seedset 0

