version 2
run Test111-0-20110218-11:50:36-32596
attr configname Test111
attr datetime 20110218-11:50:36
attr experiment Test111
attr inifile omnetpp.ini
attr iterationvars ""
attr iterationvars2 $repetition=0
attr measurement ""
attr network BEB1Tester4
attr processid 32596
attr repetition 0
attr replication #0
attr resultdir results
attr runnumber 0
attr seedset 0

