version 2
run Test404-0-20110218-11:50:48-487
attr configname Test404
attr datetime 20110218-11:50:48
attr experiment Test404
attr inifile omnetpp.ini
attr iterationvars ""
attr iterationvars2 $repetition=0
attr measurement ""
attr network Bridge1QTester4
attr processid 487
attr repetition 0
attr replication #0
attr resultdir results
attr runnumber 0
attr seedset 0

