version 2
run Test001-0-20110218-11:50:32-32483
attr configname Test001
attr datetime 20110218-11:50:32
attr experiment Test001
attr inifile omnetpp.ini
attr iterationvars ""
attr iterationvars2 $repetition=0
attr measurement ""
attr network Tester2
attr processid 32483
attr repetition 0
attr replication #0
attr resultdir results
attr runnumber 0
attr seedset 0

